$# LS-DYNA Keyword file created by LS-PrePost(R) V4.6.17 - 11Sep2019
$# Created on Aug-20-2021 (09:19:18)
*KEYWORD
*TITLE
$#                                                                         title
LS-DYNA keyword deck by LS-PrePost
*CONTROL_TERMINATION
$#  endtim    endcyc     dtmin    endeng    endmas     nosol     
     100.0         0       0.0       0.01.000000E8         0
*DATABASE_BINARY_D3PLOT
$#      dt      lcdt      beam     npltc    psetid      
       1.0         0         0         0         0
$#   ioopt     
         0
*PART
$#                                                                         title
boxsolid
$#     pid     secid       mid     eosid      hgid      grav    adpopt      tmid
         3         2         3         0         0         0         0         0
*SECTION_SOLID_TITLE
solid
$#   secid    elform       aet   
         2         1         0
*MAT_HYPERELASTIC_RUBBER_TITLE
mat_hyper
$#     mid        ro        pr         n        nv         g      sigf       ref
         31.00000E-9     0.495         1         0       0.0       0.0       0.0
$#     sgl        sw        st     lcid1      data     lcid2    bstart     tramp
       1.0       1.0       1.0         6       0.0         0       0.0       0.0
*PART
$#                                                                         title
                                                                                
$#     pid     secid       mid     eosid      hgid      grav    adpopt      tmid
         4         1         1         0         0         0         0         0
*SECTION_BEAM_TITLE
muscle section
$#   secid    elform      shrf   qr/irid       cst     scoor       nsm   
         1         3       1.0         2         1       0.0       0.0
$#       a     rampt    stress      
     100.0       0.0       0.0
*MAT_MUSCLE_TITLE
muscle
$#     mid        ro       sno       srm       pis       ssm       cer       dmp
         11.00000E-9      0.95      10.03.00000E-5       0.8      6.15     0.001
$#     alm       sfr       svs       svr       ssp   
        -3       1.0        -2        -5       1.0
*MAT_ELASTIC_TITLE
solid
$#     mid        ro         e        pr        da        db  not used        
         21.00000E-9      0.02      0.49       0.0       0.0       0.0
*DEFINE_CURVE_TITLE
force_length
$#    lcid      sidr       sfa       sfo      offa      offo    dattyp     lcint
         2         0       1.0       1.0       0.0       0.0         0         0
$#                a1                  o1  
   -9.9899996712e-05             0.00843
              0.0266             0.00843
               0.071              0.0169
               0.106              0.0253
               0.133              0.0337
               0.169              0.0506
               0.204              0.0674
               0.231              0.0843
               0.266               0.101
               0.284               0.118
                0.31               0.135
               0.328               0.152
               0.354               0.177
               0.381               0.202
               0.399               0.228
               0.425               0.261
               0.452               0.295
               0.487               0.346
               0.504               0.371
               0.522               0.396
$ ... 58 like lines cut
*DEFINE_CURVE_TITLE
activation level
$#    lcid      sidr       sfa       sfo      offa      offo    dattyp     lcint
         3         0       1.0       1.0       0.0       0.0         0         0
$#                a1                  o1  
                 0.0                 0.0
                0.05                 0.0
               0.075                 0.3
                 0.1                 0.6
               0.125                 0.8
                0.15                 0.9
                 0.2                 1.0
                0.25                 1.0
                 0.3                 1.0
                 1.0                 1.0
                10.0                 1.0
                11.0                 1.0
                15.0                 0.3
                20.0                 0.0
                40.0                 0.0
                50.0                 0.0
               200.0                 0.0
*DEFINE_CURVE_TITLE
negative relation between h and l/l_orig
$#    lcid      sidr       sfa       sfo      offa      offo    dattyp     lcint
         4         0       1.0       1.0       0.0       0.0         0         0
$#                a1                  o1  
                 0.0                 0.0
                 0.5                 0.0
                 1.0                 0.0
                 1.5                 0.0
                10.0                 0.0
*DEFINE_CURVE_TITLE
force_velocity
$#    lcid      sidr       sfa       sfo      offa      offo    dattyp     lcint
         5         0       1.0       1.0       0.0       0.0         0         0
$#                a1                  o1  
                -1.0                 0.0
              -0.929             0.00838
              -0.876              0.0251
              -0.822              0.0335
              -0.769              0.0503
              -0.716               0.067
              -0.662              0.0838
              -0.609               0.109
              -0.556               0.134
              -0.511               0.159
              -0.458               0.184
              -0.413               0.218
              -0.369               0.251
              -0.324               0.285
              -0.289               0.327
              -0.253               0.369
              -0.218               0.411
              -0.191               0.453
              -0.164               0.503
              -0.138               0.553
$ ... 30 like lines cut
*DEFINE_CURVE_TITLE
mat_hyper
$#    lcid      sidr       sfa       sfo      offa      offo    dattyp     lcint
         6         0       1.0       1.0       0.0       0.0         0         0
$#                a1                  o1  
                 0.0                 0.0
           0.0725082    1.7618499442e-06
           0.0832871    1.7363399820e-05
           0.0941743    3.5557801311e-05
           0.1051709    5.6262801081e-05
           0.1162781    7.9398101661e-05
           0.1274969    1.0488500266e-04
           0.1388284    1.3264699373e-04
           0.1502738    1.6260700068e-04
           0.1618342    1.9469199469e-04
           0.1735109    2.2883000202e-04
           0.1853049    2.6494899066e-04
           0.1972174    3.0298100319e-04
           0.2092496    3.4285598667e-04
           0.2214028    3.8450901047e-04
           0.2336781    4.2787400889e-04
           0.2460767    4.7288701171e-04
              0.2586    5.1948602777e-04
           0.2712491    5.6761101587e-04
           0.2840254    6.1719998484e-04
$ ... 75 like lines cut
*SET_NODE_LIST_TITLE
NODESET(SPC) 1
$#     sid       da1       da2       da3       da4    solver      
         1       0.0       0.0       0.0       0.0MECH
$#    nid1      nid2      nid3      nid4      nid5      nid6      nid7      nid8
       287       289       291       293         0         0         0         0
*ELEMENT_SOLID
$#   eid     pid      n1      n2      n3      n4      n5      n6      n7      n8
       6       3     295     296     307     306     317     318     329     328
       7       3     296     297     308     307     318     319     330     329
       8       3     297     298     309     308     319     320     331     330
       9       3     298     299     310     309     320     321     332     331
      10       3     299     300     311     310     321     322     333     332
      11       3     300     301     312     311     322     323     334     333
      12       3     301     302     313     312     323     324     335     334
      13       3     302     303     314     313     324     325     336     335
      14       3     303     304     315     314     325     326     337     336
      15       3     304     305     316     315     326     327     338     337
*ELEMENT_BEAM
$#   eid     pid      n1      n2      n3     rt1     rr1     rt2     rr2   local
      16       4     295     296       0       0       0       0       0       2
      17       4     296     297       0       0       0       0       0       2
      18       4     297     298       0       0       0       0       0       2
      19       4     298     299       0       0       0       0       0       2
      20       4     299     300       0       0       0       0       0       2
      21       4     300     301       0       0       0       0       0       2
      22       4     301     302       0       0       0       0       0       2
      23       4     302     303       0       0       0       0       0       2
      24       4     303     304       0       0       0       0       0       2
      25       4     304     305       0       0       0       0       0       2
      26       4     307     306       0       0       0       0       0       2
      27       4     308     307       0       0       0       0       0       2
      28       4     309     308       0       0       0       0       0       2
      29       4     310     309       0       0       0       0       0       2
      30       4     311     310       0       0       0       0       0       2
      31       4     312     311       0       0       0       0       0       2
      32       4     313     312       0       0       0       0       0       2
      33       4     314     313       0       0       0       0       0       2
      34       4     315     314       0       0       0       0       0       2
      35       4     316     315       0       0       0       0       0       2
$ ... 20 like lines cut
*NODE
$#   nid               x               y               z      tc      rc  
       1             0.0             0.0             0.0       0       0
      42             0.0             0.0            10.0       0       0
      63             0.0            10.0             0.0       0       0
      84             0.0            10.0            10.0       0       0
     126             0.0             5.0             0.0       0       0
     168             0.0             0.0             5.0       0       0
     189             0.0             5.0             5.0       0       0
     210             0.0            10.0             5.0       0       0
     252             0.0             5.0            10.0       0       0
     253             0.0             0.0             0.0       0       0
     264             0.0            10.0             0.0       0       0
     275             0.0             0.0            10.0       0       0
     286             0.0            10.0            10.0       0       0
     287             0.0             0.0             0.0       0       0
     289             0.0            10.0             0.0       0       0
     291             0.0             0.0            10.0       0       0
     293             0.0            10.0            10.0       0       0
     295             0.0             0.0             0.0       0       0
     296            10.0             0.0             0.0       0       0
     297            20.0             0.0             0.0       0       0
$ ... 41 like lines cut
*END
