$# LS-DYNA Keyword file created by LS-PrePost(R) V4.7.19 -20Aug2020
$# Created on Jul-28-2022 (10:03:36)
*KEYWORD
*TITLE
$#                                                                         title
LS-DYNA keyword deck by LS-PrePost
*CONTROL_TERMINATION
$#  endtim    endcyc     dtmin    endeng    endmas     nosol     
     150.0         0       0.0       0.01.000000E8         0
*DATABASE_BINARY_D3PLOT
$#      dt      lcdt      beam     npltc    psetid      
       1.0         0         0         0         0
$#   ioopt      rate    cutoff    window      type      pset    
         0       0.0       0.0       0.0         0         0
*PART
$#                                                                         title
solid
$#     pid     secid       mid     eosid      hgid      grav    adpopt      tmid
         1         2         2         0         0         0         0         0
*SECTION_SOLID_TITLE
solid
$#   secid    elform       aet   
         2         1         0
*MAT_ELASTIC_TITLE
solid
$#     mid        ro         e        pr        da        db  not used        
         21.00000E-9     0.002      0.49       0.0       0.0       0.0
*PART
$#                                                                         title
beams
$#     pid     secid       mid     eosid      hgid      grav    adpopt      tmid
         2         1         1         0         0         0         0         0
*SECTION_BEAM_TITLE
muscle section
$#   secid    elform      shrf   qr/irid       cst     scoor       nsm     naupd
         1         3       1.0         2         1       0.0       0.0         0
$#       a     rampt    stress      
     100.0       0.0       0.0
*MAT_MUSCLE_TITLE
muscle
$#     mid        ro       sno       srm       pis       ssm       cer       dmp
         11.00000E-9      0.95      10.05.00000E-5       0.8      6.15     0.001
$#     alm       sfr       svs       svr       ssp   
        -3       1.0        -2        -5       1.0
*DEFINE_CURVE_TITLE
force_length
$#    lcid      sidr       sfa       sfo      offa      offo    dattyp     lcint
         2         0       1.0       1.0       0.0       0.0         0         0
$#                a1                  o1  
   -9.9899996712e-05             0.00843
              0.0266             0.00843
               0.071              0.0169
               0.106              0.0253
               0.133              0.0337
               0.169              0.0506
               0.204              0.0674
               0.231              0.0843
               0.266               0.101
               0.284               0.118
                0.31               0.135
               0.328               0.152
               0.354               0.177
               0.381               0.202
               0.399               0.228
               0.425               0.261
               0.452               0.295
               0.487               0.346
               0.504               0.371
               0.522               0.396
$ ... 58 like lines cut
*DEFINE_CURVE_TITLE
activation level
$#    lcid      sidr       sfa       sfo      offa      offo    dattyp     lcint
         3         0       1.0       1.0       0.0       0.0         0         0
$#                a1                  o1  
                 0.0                 0.0
                0.05                 0.0
               0.075                 0.3
                 0.1                 0.6
               0.125                 0.8
                0.15                 0.9
                 0.2                 1.0
                0.25                 1.0
                 0.3                 1.0
                 1.0                 1.0
                40.0                 1.0
                50.0                 0.0
               200.0                 0.0
*DEFINE_CURVE_TITLE
negative relation between h and l/l_orig
$#    lcid      sidr       sfa       sfo      offa      offo    dattyp     lcint
         4         0       1.0       1.0       0.0       0.0         0         0
$#                a1                  o1  
                 0.0                 0.0
                 0.5                 0.0
                 1.0                 0.0
                 1.5                 0.0
                10.0                 0.0
*DEFINE_CURVE_TITLE
force_velocity
$#    lcid      sidr       sfa       sfo      offa      offo    dattyp     lcint
         5         0       1.0       1.0       0.0       0.0         0         0
$#                a1                  o1  
                -1.0                 0.0
              -0.929             0.00838
              -0.876              0.0251
              -0.822              0.0335
              -0.769              0.0503
              -0.716               0.067
              -0.662              0.0838
              -0.609               0.109
              -0.556               0.134
              -0.511               0.159
              -0.458               0.184
              -0.413               0.218
              -0.369               0.251
              -0.324               0.285
              -0.289               0.327
              -0.253               0.369
              -0.218               0.411
              -0.191               0.453
              -0.164               0.503
              -0.138               0.553
$ ... 30 like lines cut
*ELEMENT_SOLID
$#   eid     pid      n1      n2      n3      n4      n5      n6      n7      n8
       1       1     287     288     299     298     309     310     321     320
       2       1     288     289     300     299     310     311     322     321
       3       1     289     290     301     300     311     312     323     322
       4       1     290     291     302     301     312     313     324     323
       5       1     291     292     303     302     313     314     325     324
       6       1     292     293     304     303     314     315     326     325
       7       1     293     294     305     304     315     316     327     326
       8       1     294     295     306     305     316     317     328     327
       9       1     295     296     307     306     317     318     329     328
      10       1     296     297     308     307     318     319     330     329
*ELEMENT_BEAM
$#   eid     pid      n1      n2      n3     rt1     rr1     rt2     rr2   local
      11       2     287     288       0       0       0       0       0       0
      12       2     288     289       0       0       0       0       0       0
      13       2     289     290       0       0       0       0       0       0
      14       2     290     291       0       0       0       0       0       0
      15       2     291     292       0       0       0       0       0       0
      16       2     292     293       0       0       0       0       0       0
      17       2     293     294       0       0       0       0       0       0
      18       2     294     295       0       0       0       0       0       0
      19       2     295     296       0       0       0       0       0       0
      20       2     296     297       0       0       0       0       0       0
      21       2     299     298       0       0       0       0       0       0
      22       2     300     299       0       0       0       0       0       0
      23       2     301     300       0       0       0       0       0       0
      24       2     302     301       0       0       0       0       0       0
      25       2     303     302       0       0       0       0       0       0
      26       2     304     303       0       0       0       0       0       0
      27       2     305     304       0       0       0       0       0       0
      28       2     306     305       0       0       0       0       0       0
      29       2     307     306       0       0       0       0       0       0
      30       2     308     307       0       0       0       0       0       0
$ ... 20 like lines cut
*NODE
$#   nid               x               y               z      tc      rc  
       1             0.0             0.0             0.0       0       0
      42             0.0             0.0            10.0       0       0
      63             0.0            10.0             0.0       0       0
      84             0.0            10.0            10.0       0       0
     126             0.0             5.0             0.0       0       0
     168             0.0             0.0             5.0       0       0
     189             0.0             5.0             5.0       0       0
     210             0.0            10.0             5.0       0       0
     252             0.0             5.0            10.0       0       0
     253             0.0             0.0             0.0       0       0
     264             0.0            10.0             0.0       0       0
     275             0.0             0.0            10.0       0       0
     286             0.0            10.0            10.0       0       0
     287             0.0             0.0             0.0       0       0
     288            10.0             0.0             0.0       0       0
     289            20.0             0.0             0.0       0       0
     290            30.0             0.0             0.0       0       0
     291            40.0             0.0             0.0       0       0
     292            50.0             0.0             0.0       0       0
     293            60.0             0.0             0.0       0       0
$ ... 37 like lines cut
*END
