$# LS-DYNA Keyword file created by LS-PrePost(R) V4.6.17 - 11Sep2019
$# Created on Sep-20-2021 (11:06:42)
*KEYWORD
*TITLE
$#                                                                         title
LS-DYNA keyword deck by LS-PrePost
*CONTROL_TERMINATION
$#  endtim    endcyc     dtmin    endeng    endmas     nosol     
      40.0         0       0.0       0.01.000000E8         0
*DATABASE_BINARY_D3PLOT
$#      dt      lcdt      beam     npltc    psetid      
       1.0         0         0         0         0
$#   ioopt     
         0
*BOUNDARY_SPC_SET
$#    nsid       cid      dofx      dofy      dofz     dofrx     dofry     dofrz
         1         0         1         0         0         0         0         0
*SET_NODE_LIST_TITLE
NODESET(SPC) 1
$#     sid       da1       da2       da3       da4    solver      
         1       0.0       0.0       0.0       0.0MECH
$#    nid1      nid2      nid3      nid4      nid5      nid6      nid7      nid8
         1        42        63        84       126       168       189       210
       252       253       264       275       286       287       289       291
       293         0         0         0         0         0         0         0
*BOUNDARY_SPC_SET
$#    nsid       cid      dofx      dofy      dofz     dofrx     dofry     dofrz
         2         0         1         0         0         0         0         0
*SET_NODE_LIST_TITLE
NODESET(SPC) 2
$#     sid       da1       da2       da3       da4    solver      
         2       0.0       0.0       0.0       0.0MECH
$#    nid1      nid2      nid3      nid4      nid5      nid6      nid7      nid8
       294       296       298       300         0         0         0         0
*PART
$#                                                                         title
boxsolid
$#     pid     secid       mid     eosid      hgid      grav    adpopt      tmid
         1         2         2         0         0         0         0         0
*PART
$#                                                                         title
                                                                                
$#     pid     secid       mid     eosid      hgid      grav    adpopt      tmid
         2         1         1         0         0         0         0         0
*SECTION_BEAM_TITLE
muscle section
$#   secid    elform      shrf   qr/irid       cst     scoor       nsm   
         1         3       1.0         2         1       0.0       0.0
$#       a     rampt    stress      
       6.0       0.0       0.0
*SECTION_SOLID_TITLE
solid
$#   secid    elform       aet   
         2         1         0
*MAT_MUSCLE_TITLE
muscle
$#     mid        ro       sno       srm       pis       ssm       cer       dmp
         11.00000E-9      0.95      10.0     0.085       0.8      6.15      0.05
$#     alm       sfr       svs       svr       ssp   
        -3       1.0        -2        -5       1.0
*MAT_ELASTIC_TITLE
solid
$#     mid        ro         e        pr        da        db  not used        
         21.00000E-9      0.01      0.49       0.0       0.0       0.0
*DEFINE_CURVE_TITLE
force_length
$#    lcid      sidr       sfa       sfo      offa      offo    dattyp     lcint
         2         0       1.0       1.0       0.0       0.0         0         0
$#                a1                  o1  
   -9.9899996712e-05             0.00843
              0.0266             0.00843
               0.071              0.0169
               0.106              0.0253
               0.133              0.0337
               0.169              0.0506
               0.204              0.0674
               0.231              0.0843
               0.266               0.101
               0.284               0.118
                0.31               0.135
               0.328               0.152
               0.354               0.177
               0.381               0.202
               0.399               0.228
               0.425               0.261
               0.452               0.295
               0.487               0.346
               0.504               0.371
               0.522               0.396
$ ... 58 like lines cut
*DEFINE_CURVE_TITLE
activation level
$#    lcid      sidr       sfa       sfo      offa      offo    dattyp     lcint
         3         0       1.0       1.0       0.0       0.0         0         0
$#                a1                  o1  
                 0.0                 0.0
                 8.0                 1.0
                10.0                 1.0
                17.0                 0.0
                40.0                 0.0
*DEFINE_CURVE_TITLE
negative relation between h and l/l_orig
$#    lcid      sidr       sfa       sfo      offa      offo    dattyp     lcint
         4         0       1.0       1.0       0.0       0.0         0         0
$#                a1                  o1  
                 0.0                 0.0
                 0.5                 0.0
                 1.0                 0.0
                 1.5                 0.0
                10.0                 0.0
*DEFINE_CURVE_TITLE
force_velocity
$#    lcid      sidr       sfa       sfo      offa      offo    dattyp     lcint
         5         0       1.0       1.0       0.0       0.0         0         0
$#                a1                  o1  
                -1.0                 0.0
              -0.929             0.00838
              -0.876              0.0251
              -0.822              0.0335
              -0.769              0.0503
              -0.716               0.067
              -0.662              0.0838
              -0.609               0.109
              -0.556               0.134
              -0.511               0.159
              -0.458               0.184
              -0.413               0.218
              -0.369               0.251
              -0.324               0.285
              -0.289               0.327
              -0.253               0.369
              -0.218               0.411
              -0.191               0.453
              -0.164               0.503
              -0.138               0.553
$ ... 30 like lines cut
*ELEMENT_SOLID
$#   eid     pid      n1      n2      n3      n4      n5      n6      n7      n8
       1       1     294     295     297     296     298     299     301     300
*ELEMENT_BEAM
$#   eid     pid      n1      n2      n3     rt1     rr1     rt2     rr2   local
       2       2     294     295       0       0       0       0       0       0
       3       2     297     296       0       0       0       0       0       0
       4       2     298     299       0       0       0       0       0       0
       5       2     301     300       0       0       0       0       0       0
*NODE
$#   nid               x               y               z      tc      rc  
       1             0.0             0.0             0.0       0       0
      42             0.0             0.0            10.0       0       0
      63             0.0            10.0             0.0       0       0
      84             0.0            10.0            10.0       0       0
     126             0.0             5.0             0.0       0       0
     168             0.0             0.0             5.0       0       0
     189             0.0             5.0             5.0       0       0
     210             0.0            10.0             5.0       0       0
     252             0.0             5.0            10.0       0       0
     253             0.0             0.0             0.0       0       0
     264             0.0            10.0             0.0       0       0
     275             0.0             0.0            10.0       0       0
     286             0.0            10.0            10.0       0       0
     287             0.0             0.0             0.0       0       0
     289             0.0            10.0             0.0       0       0
     291             0.0             0.0            10.0       0       0
     293             0.0            10.0            10.0       0       0
     294             0.0             0.0             0.0       0       0
     295            80.0             0.0             0.0       0       0
     296             0.0             5.0             0.0       0       0
$ ... 5 like lines cut
*END
