$# LS-DYNA Keyword file created by LS-PrePost(R) V4.7.19 -20Aug2020
$# Created on Jul-28-2022 (09:29:38)
*KEYWORD
*TITLE
$#                                                                         title
LS-DYNA keyword deck by LS-PrePost
*CONTROL_TERMINATION
$#  endtim    endcyc     dtmin    endeng    endmas     nosol     
     100.0         0       0.0       0.01.000000E8         0
*DATABASE_BINARY_D3PLOT
$#      dt      lcdt      beam     npltc    psetid      
       1.0         0         0         0         0
$#   ioopt      rate    cutoff    window      type      pset    
         0       0.0       0.0       0.0         0         0
*PART
$#                                                                         title

$#     pid     secid       mid     eosid      hgid      grav    adpopt      tmid
         2         1         1         0         0         0         0         0
*SECTION_BEAM_TITLE
muscle section
$#   secid    elform      shrf   qr/irid       cst     scoor       nsm     naupd
         1         3       1.0         2         1       0.0       0.0         0
$#       a     rampt    stress      
     100.0       0.0       0.0
*MAT_MUSCLE_TITLE
muscle
$#     mid        ro       sno       srm       pis       ssm       cer       dmp
         11.00000E-9      0.95      10.05.00000E-5       0.8      6.15     0.004
$#     alm       sfr       svs       svr       ssp   
        -3       1.0        -2        -5       1.0
*MAT_ELASTIC_TITLE
solid
$#     mid        ro         e        pr        da        db  not used        
         21.00000E-9     0.002      0.49       0.0       0.0       0.0
*DEFINE_CURVE_TITLE
force_length
$#    lcid      sidr       sfa       sfo      offa      offo    dattyp     lcint
         2         0       1.0       1.0       0.0       0.0         0         0
$#                a1                  o1  
   -9.9899996712e-05             0.00843
              0.0266             0.00843
               0.071              0.0169
               0.106              0.0253
               0.133              0.0337
               0.169              0.0506
               0.204              0.0674
               0.231              0.0843
               0.266               0.101
               0.284               0.118
                0.31               0.135
               0.328               0.152
               0.354               0.177
               0.381               0.202
               0.399               0.228
               0.425               0.261
               0.452               0.295
               0.487               0.346
               0.504               0.371
               0.522               0.396
$ ... 58 like lines cut
*DEFINE_CURVE_TITLE
activation level
$#    lcid      sidr       sfa       sfo      offa      offo    dattyp     lcint
         3         0       1.0       1.0       0.0       0.0         0         0
$#                a1                  o1  
                 0.0                 0.0
                0.05                 0.0
               0.075                 0.3
                 0.1                 0.6
               0.125                 0.8
                0.15                 0.9
                 0.2                 1.0
                0.25                 1.0
                 0.3                 1.0
                 1.0                 1.0
                40.0                 1.0
                50.0                 0.0
               200.0                 0.0
*DEFINE_CURVE_TITLE
negative relation between h and l/l_orig
$#    lcid      sidr       sfa       sfo      offa      offo    dattyp     lcint
         4         0       1.0       1.0       0.0       0.0         0         0
$#                a1                  o1  
                 0.0                 0.0
                 0.5                 0.0
                 1.0                 0.0
                 1.5                 0.0
                10.0                 0.0
*DEFINE_CURVE_TITLE
force_velocity
$#    lcid      sidr       sfa       sfo      offa      offo    dattyp     lcint
         5         0       1.0       1.0       0.0       0.0         0         0
$#                a1                  o1  
                -1.0                 0.0
              -0.929             0.00838
              -0.876              0.0251
              -0.822              0.0335
              -0.769              0.0503
              -0.716               0.067
              -0.662              0.0838
              -0.609               0.109
              -0.556               0.134
              -0.511               0.159
              -0.458               0.184
              -0.413               0.218
              -0.369               0.251
              -0.324               0.285
              -0.289               0.327
              -0.253               0.369
              -0.218               0.411
              -0.191               0.453
              -0.164               0.503
              -0.138               0.553
$ ... 30 like lines cut
*SECTION_SOLID_TITLE
solid
$#   secid    elform       aet   
         2         1         0
*ELEMENT_BEAM
$#   eid     pid      n1      n2      n3     rt1     rr1     rt2     rr2   local
       2       2     290     322       0       0       0       0       0       2
       3       2     287     304       0       0       0       0       0       2
       4       2     291     295       0       0       0       0       0       2
       5       2     294     313       0       0       0       0       0       2
       6       2     295     296       0       0       0       0       0       2
       7       2     296     297       0       0       0       0       0       2
       8       2     297     298       0       0       0       0       0       2
       9       2     298     299       0       0       0       0       0       2
      10       2     299     300       0       0       0       0       0       2
      11       2     300     301       0       0       0       0       0       2
      12       2     301     302       0       0       0       0       0       2
      13       2     302     303       0       0       0       0       0       2
      14       2     303     292       0       0       0       0       0       2
      15       2     304     305       0       0       0       0       0       2
      16       2     305     306       0       0       0       0       0       2
      17       2     306     307       0       0       0       0       0       2
      18       2     307     308       0       0       0       0       0       2
      19       2     308     309       0       0       0       0       0       2
      20       2     309     310       0       0       0       0       0       2
      21       2     310     311       0       0       0       0       0       2
$ ... 20 like lines cut
*NODE
$#   nid               x               y               z      tc      rc  
       1             0.0             0.0             0.0       0       0
      42             0.0             0.0            10.0       0       0
      63             0.0            10.0             0.0       0       0
      84             0.0            10.0            10.0       0       0
     126             0.0             5.0             0.0       0       0
     168             0.0             0.0             5.0       0       0
     189             0.0             5.0             5.0       0       0
     210             0.0            10.0             5.0       0       0
     252             0.0             5.0            10.0       0       0
     253             0.0             0.0             0.0       0       0
     264             0.0            10.0             0.0       0       0
     275             0.0             0.0            10.0       0       0
     286             0.0            10.0            10.0       0       0
     287             0.0             0.0             0.0       0       0
     288           100.0             0.0             0.0       0       0
     289             0.0            10.0             0.0       0       0
     290           100.0            10.0             0.0       0       0
     291             0.0             0.0            10.0       0       0
     292           100.0             0.0            10.0       0       0
     293             0.0            10.0            10.0       0       0
$ ... 37 like lines cut
*END
